@<TRIPOS>MOLECULE
9554
26 25 1
SMALL
USER_CHARGES
@<TRIPOS>ATOM
1	F1    -1.0539     1.9481    -0.2014	F	1	noname	-0.1922
2	F2     0.5434     1.2581    -1.5025	F	1	noname	-0.1922
3	F3     1.2215     1.6487     1.0783	F	1	noname	-0.1922
4	F4    -0.3328     0.2934     1.7581	F	1	noname	-0.1922
5	F5    -1.8211     0.1669    -2.1654	F	1	noname	-0.1921
6	F6    -0.4525    -1.3197    -1.3550	F	1	noname	-0.1921
7	F7     2.0673    -0.7623     1.9165	F	1	noname	-0.1918
8	F8     0.8055    -1.7942     0.4870	F	1	noname	-0.1918
9	F9    -2.9835    -1.7149    -0.6823	F	1	noname	-0.1889
10	F10    -1.6932    -1.3046     1.0212	F	1	noname	-0.1889
11	F11     2.1054    -0.6120    -1.6013	F	1	noname	-0.1876
12	F12     3.3419    -1.7554    -0.2365	F	1	noname	-0.1876
13	F13    -3.9677     0.8422    -0.5956	F	1	noname	-0.1647
14	F14    -2.6826     1.3007     1.1093	F	1	noname	-0.1647
15	F15    -4.1728    -0.2740     1.2669	F	1	noname	-0.1647
16	O1     4.5699     0.3287     0.6742	O.3	1	noname	-0.1969
17	O2     3.3666     1.6773    -0.7043	O.2	1	noname	-0.2278
18	C1    -0.2911     0.8598    -0.5112	C.3	1	noname	0.3846
19	C2     0.5314     0.5262     0.7274	C.3	1	noname	0.3848
20	C3    -1.2138    -0.2391    -1.0209	C.3	1	noname	0.3873
21	C4     1.5064    -0.6431     0.6776	C.3	1	noname	0.3879
22	C5    -2.2850    -0.7254    -0.0556	C.3	1	noname	0.4091
23	C6     2.6302    -0.5967    -0.3477	C.3	1	noname	0.3990
24	C7    -3.2786     0.3000     0.4302	C.3	1	noname	0.4597
25	C8     3.5392     0.5913    -0.1672	C.2	1	noname	0.1748
26	H1     5.1534     1.1082     0.7930	H	1	noname	0.2215
@<TRIPOS>BOND
1	1	18	1
2	2	18	1
3	3	19	1
4	4	19	1
5	5	20	1
6	6	20	1
7	7	21	1
8	8	21	1
9	9	22	1
10	10	22	1
11	11	23	1
12	12	23	1
13	13	24	1
14	14	24	1
15	15	24	1
16	16	25	1
17	16	26	1
18	17	25	2
19	18	19	1
20	18	20	1
21	19	21	1
22	20	22	1
23	21	23	1
24	22	24	1
25	23	25	1
@<TRIPOS>SUBSTRUCTURE
1	noname	1
